version 2
1
9
.tran 2u 450u{return}.kicad adjustpaths{return}.save all{return}.probe alli
6
1
V(Net-_D1-A_)
 
1
V(Net-_D1-K_)
 
1
V(Net-_Q1-D_)
 
1
V(Net-_Q1-G_)
 
1
V(Net-_Q2-D_)
 
1
V(Net-_Q2-G_)
 
